pglib-scots/SCOTS-Slack/slack_relative_quadratic/pglib_opf_case240_pserc_scots.m
%%%%%%%%%%%%%%%%%%%%%%%%%%%%%%%%%%%%%%%%%%%%%%%%%%%%%%%%%%%%%%%%%%%%%%%%%%%
%%%%                                                                  %%%%%
%%%%    This is a modified SCOTS-feasible instance adapted from the   %%%%%
%%%%                                :                                 %%%%%
%%%%    IEEE PES Power Grid Library - Optimal Power Flow - v21.07     %%%%%
%%%%          (https://github.com/power-grid-lib/pglib-opf)           %%%%%
%%%%               Benchmark Group - Typical Operations               %%%%%
%%%%                         29 - July - 2021                         %%%%%
%%%%                                                                  %%%%%
%%%%%%%%%%%%%%%%%%%%%%%%%%%%%%%%%%%%%%%%%%%%%%%%%%%%%%%%%%%%%%%%%%%%%%%%%%%
%
%   This case was prepared as part of PSERC M-21, "Technical and Economic 
%   Implications of Greenhouse Gas Regulation in a Transmission Constrained 
%   Restructured Electricity Market", which is available at https://pserc.wisc.edu
%   This dataset only includes the network model, the original report has a
%   variety of additional data, which are discussed in the following technical
%   report, 
%
%   Price, J. & Goodin, J.
%   "Reduced Network Modeling of WECC as a Market Design Prototype"
%   Power and Energy Society General Meeting
%   Detroit, MI, July, 2011
%
%   Copyright (c) 2011, Power Systems Engineering Research Center (PSERC)
%   Licensed under the Creative Commons Attribution 4.0 International license,
%   http://creativecommons.org/licenses/by/4.0/
%
%% MATPOWER Case Format : Version 2
function mpc = pglib_opf_case240_pserc
mpc.version = '2';

%%-----  Power Flow Data  -----%%
%% system MVA base
mpc.baseMVA = 100.0;
%% bus data
%    bus_i    type    Pd    Qd    Gs    Bs    area    Vm    Va    baseKV    zone    Vmax    Vmin
mpc.bus = [
	1001	1	0.0	0.0	0.0	0.0	10	1.0	0.0	500.0	1	1.1	0.9				
	1002	1	226.8419	-37.472	0.0	0.0	10	1.0	0.0	345.0	1	1.1	0.9				
	1003	1	2153.3224	366.856	0.0	0.0	10	1.0	0.0	230.0	1	1.1	0.9				
	1004	1	1037.9499	5.521	0.0	0.0	10	1.0	0.0	345.0	1	1.1	0.9				
	1032	2	0.0	0.0	0.0	0.0	10	1.0	0.0	20.0	1	1.1	0.9				
	1034	2	0.0	0.0	0.0	0.0	10	1.0	0.0	20.0	1	1.1	0.9				
	1101	1	4527.3661	-137.044	0.0	0.0	10	1.0	0.0	500.0	1	1.1	0.9				
	1102	1	176.4436	23.004	0.0	0.0	10	1.0	0.0	345.0	1	1.1	0.9				
	1131	2	0.0	0.0	0.0	0.0	10	1.0	0.0	20.0	1	1.1	0.9				
	1201	1	166.9882	-2.012	0.0	0.0	10	1.0	0.0	500.0	1	1.1	0.9				
	1202	1	875.61	287.131	0.0	0.0	10	1.0	0.0	500.0	1	1.1	0.9				
	1232	2	0.0	0.0	0.0	0.0	10	1.0	0.0	20.0	1	1.1	0.9				
	1301	1	2704.7793	352.826	0.0	0.0	10	1.0	0.0	500.0	1	1.1	0.9				
	1302	1	17.5556	2.304	0.0	0.0	10	1.0	0.0	500.0	1	1.1	0.9				
	1303	1	6235.136	813.349	0.0	0.0	10	1.0	0.0	345.0	1	1.1	0.9				
	1331	2	0.0	0.0	0.0	0.0	10	1.0	0.0	20.0	1	1.1	0.9				
	1333	2	0.0	0.0	0.0	0.0	10	1.0	0.0	20.0	1	1.1	0.9				
	1401	1	6535.5365	1524.594	0.0	0.0	10	1.0	0.0	500.0	1	1.1	0.9				
	1402	1	5366.6305	-600.162	0.0	0.0	10	1.0	0.0	500.0	1	1.1	0.9				
	1403	1	0.0	0.0	0.0	0.0	10	1.0	0.0	230.0	1	1.1	0.9				
	1431	2	0.0	0.0	0.0	0.0	10	1.0	0.0	20.0	1	1.1	0.9				
	2000	1	2207.188	287.916	0.0	0.0	20	1.0	0.0	230.0	1	1.1	0.9				
	2030	2	0.0	0.0	0.0	0.0	20	1.0	0.0	20.0	1	1.1	0.9				
	2100	1	281.1513	54.83	0.0	0.0	21	1.0	0.0	230.0	1	1.1	0.9				
	2130	2	0.0	0.0	0.0	0.0	21	1.0	0.0	20.0	1	1.1	0.9				
	2201	1	0.0	0.0	0.0	0.0	22	1.0	0.0	500.0	1	1.1	0.9				
	2202	1	1545.949	268.565	0.0	0.0	22	1.0	0.0	230.0	1	1.1	0.9				
	2203	1	1708.5525	278.273	0.0	0.0	22	1.0	0.0	230.0	1	1.1	0.9				
	2233	2	0.0	0.0	0.0	0.0	22	1.0	0.0	20.0	1	1.1	0.9				
	2301	1	0.0	0.0	0.0	0.0	22	1.0	0.0	500.0	1	1.1	0.9				
	2302	1	0.0	0.0	0.0	0.0	22	1.0	0.0	230.0	1	1.1	0.9				
	2332	2	0.0	0.0	0.0	0.0	22	1.0	0.0	20.0	1	1.1	0.9				
	2400	1	843.2926	76.663	0.0	0.0	24	1.0	0.0	500.0	1	1.1	0.9				
	2401	1	882.3636	105.214	0.0	0.0	24	1.0	0.0	500.0	1	1.1	0.9				
	2402	1	1080.0201	81.979	0.0	0.0	24	1.0	0.0	500.0	1	1.1	0.9				
	2403	1	1050.004	38.543	0.0	0.0	24	1.0	0.0	500.0	1	1.1	0.9				
	2404	1	0.0	0.0	0.0	0.0	24	1.0	0.0	500.0	1	1.1	0.9				
	2405	1	824.6826	22.901	0.0	0.0	24	1.0	0.0	230.0	1	1.1	0.9				
	2406	1	737.4036	-40.751	0.0	0.0	24	1.0	0.0	230.0	1	1.1	0.9				
	2407	1	1732.771	-36.535	0.0	0.0	24	1.0	0.0	230.0	1	1.1	0.9				
	2408	1	1743.2768	-72.623	0.0	0.0	24	1.0	0.0	230.0	1	1.1	0.9				
	2409	1	1601.7777	-86.698	0.0	0.0	24	1.0	0.0	230.0	1	1.1	0.9				
	2410	1	1576.7872	58.184	0.0	0.0	24	1.0	0.0	230.0	1	1.1	0.9				
	2411	1	1087.6239	75.955	0.0	0.0	24	1.0	0.0	230.0	1	1.1	0.9				
	2438	2	0.0	0.0	0.0	0.0	24	1.0	0.0	20.0	1	1.1	0.9				
	2501	1	0.0	0.0	0.0	0.0	25	1.0	0.0	500.0	1	1.1	0.9				
	2502	1	2369.1531	-91.905	0.0	0.0	25	1.0	0.0	230.0	1	1.1	0.9				
	2503	1	1845.9256	201.991	0.0	0.0	25	1.0	0.0	230.0	1	1.1	0.9				
	2533	2	0.0	0.0	0.0	0.0	25	1.0	0.0	20.0	1	1.1	0.9				
	2600	1	-1863.9044	0.0	0.0	0.0	90	1.0	0.0	500.0	1	1.1	0.9				
	2601	1	0.0	0.0	0.0	0.0	26	1.0	0.0	500.0	1	1.1	0.9				
	2602	1	99.2784	12.955	0.0	0.0	26	1.0	0.0	500.0	1	1.1	0.9				
	2603	1	0.0	0.0	0.0	0.0	26	1.0	0.0	500.0	1	1.1	0.9				
	2604	1	2050.7816	0.0	0.0	0.0	90	1.0	0.0	345.0	1	1.1	0.9				
	2605	1	0.0	0.0	0.0	0.0	26	1.0	0.0	287.0	1	1.1	0.9				
	2606	1	0.0	0.0	0.0	0.0	26	1.0	0.0	287.0	1	1.1	0.9				
	2607	1	0.0	0.0	0.0	0.0	26	1.0	0.0	287.0	1	1.1	0.9				
	2608	1	99.2784	12.955	0.0	0.0	26	1.0	0.0	230.0	1	1.1	0.9				
	2609	1	134.0261	26.805	0.0	0.0	26	1.0	0.0	230.0	1	1.1	0.9				
	2610	1	99.2784	12.955	0.0	0.0	26	1.0	0.0	230.0	1	1.1	0.9				
	2611	1	99.2784	12.955	0.0	0.0	26	1.0	0.0	230.0	1	1.1	0.9				
	2612	1	120.1277	24.819	0.0	0.0	26	1.0	0.0	230.0	1	1.1	0.9				
	2613	1	317.693	64.532	0.0	0.0	26	1.0	0.0	230.0	1	1.1	0.9				
	2614	1	137.0047	27.798	0.0	0.0	26	1.0	0.0	230.0	1	1.1	0.9				
	2615	1	801.9756	131.148	0.0	0.0	26	1.0	0.0	230.0	1	1.1	0.9				
	2616	1	116.1565	23.827	0.0	0.0	26	1.0	0.0	230.0	1	1.1	0.9				
	2617	1	120.1277	24.819	0.0	0.0	26	1.0	0.0	230.0	1	1.1	0.9				
	2618	1	881.2994	-6.155	0.0	0.0	26	1.0	0.0	230.0	1	1.1	0.9				
	2619	1	-2773.8339	0.0	0.0	0.0	90	1.0	0.0	230.0	1	1.1	0.9				
	2620	1	203.7206	17.473	0.0	0.0	26	1.0	0.0	230.0	1	1.1	0.9				
	2621	1	235.4897	-62.745	0.0	0.0	26	1.0	0.0	138.0	1	1.1	0.9				
	2630	2	0.0	0.0	0.0	0.0	26	1.0	0.0	20.0	1	1.1	0.9				
	2631	2	0.0	0.0	0.0	0.0	26	1.0	0.0	20.0	1	1.1	0.9				
	2634	2	0.0	0.0	0.0	0.0	90	1.0	0.0	20.0	1	1.1	0.9				
	2637	2	0.0	0.0	0.0	0.0	26	1.0	0.0	20.0	1	1.1	0.9				
	2638	2	0.0	0.0	0.0	0.0	26	1.0	0.0	20.0	1	1.1	0.9				
	2901	1	0.0	0.0	0.0	0.0	24	1.0	0.0	500.0	1	1.1	0.9				
	2902	1	0.0	0.0	0.0	0.0	24	1.0	0.0	500.0	1	1.1	0.9				
	3101	1	341.3057	52.828	0.0	0.0	31	1.0	0.0	230.0	1	1.1	0.9				
	3102	1	159.4648	24.929	0.0	0.0	31	1.0	0.0	230.0	1	1.1	0.9				
	3103	1	419.6109	59.777	0.0	0.0	32	1.0	0.0	230.0	1	1.1	0.9				
	3104	1	309.9718	40.133	0.0	0.0	31	1.0	0.0	115.0	1	1.1	0.9				
	3105	1	239.3018	49.091	0.0	0.0	31	1.0	0.0	115.0	1	1.1	0.9				
	3133	2	0.0	0.0	0.0	0.0	32	1.0	0.0	20.0	1	1.1	0.9				
	3135	2	0.0	0.0	0.0	0.0	31	1.0	0.0	20.0	1	1.1	0.9				
	3201	1	462.4769	97.849	0.0	0.0	32	1.0	0.0	230.0	1	1.1	0.9				
	3202	1	586.1795	83.473	0.0	0.0	32	1.0	0.0	230.0	1	1.1	0.9				
	3203	1	657.1046	158.476	0.0	0.0	32	1.0	0.0	230.0	1	1.1	0.9				
	3204	1	668.7879	95.313	0.0	0.0	32	1.0	0.0	230.0	1	1.1	0.9				
	3205	1	546.0609	77.782	0.0	0.0	32	1.0	0.0	230.0	1	1.1	0.9				
	3234	2	0.0	0.0	0.0	0.0	32	1.0	0.0	20.0	1	1.1	0.9				
	3301	1	0.0	0.0	0.0	0.0	32	1.0	0.0	500.0	1	1.1	0.9				
	3302	1	345.3259	85.791	0.0	0.0	32	1.0	0.0	230.0	1	1.1	0.9				
	3303	1	625.4106	150.715	0.0	0.0	32	1.0	0.0	230.0	1	1.1	0.9				
	3304	1	533.4822	122.616	0.0	0.0	32	1.0	0.0	230.0	1	1.1	0.9				
	3305	1	430.3196	61.225	0.0	0.0	32	1.0	0.0	230.0	1	1.1	0.9				
	3333	2	0.0	0.0	0.0	0.0	32	1.0	0.0	20.0	1	1.1	0.9				
	3401	1	557.7071	135.909	0.0	0.0	34	1.0	0.0	230.0	1	1.1	0.9				
	3402	1	0.0	0.0	0.0	0.0	34	1.0	0.0	230.0	1	1.1	0.9				
	3403	1	515.9687	73.583	0.0	0.0	34	1.0	0.0	230.0	1	1.1	0.9				
	3404	1	438.461	62.075	0.0	0.0	34	1.0	0.0	230.0	1	1.1	0.9				
	3405	1	448.8976	63.723	0.0	0.0	34	1.0	0.0	230.0	1	1.1	0.9				
	3432	2	0.0	0.0	0.0	0.0	34	1.0	0.0	20.0	1	1.1	0.9				
	3433	2	0.0	0.0	0.0	0.0	34	1.0	0.0	20.0	1	1.1	0.9				
	3501	1	625.0164	89.015	0.0	0.0	35	1.0	0.0	230.0	1	1.1	0.9				
	3531	2	0.0	0.0	0.0	0.0	35	1.0	0.0	20.0	1	1.1	0.9				
	3601	1	104.8564	14.844	0.0	0.0	36	1.0	0.0	115.0	1	1.1	0.9				
	3631	2	0.0	0.0	0.0	0.0	36	1.0	0.0	20.0	1	1.1	0.9				
	3701	1	317.0506	15.847	0.0	0.0	37	1.0	0.0	115.0	1	1.1	0.9				
	3731	2	0.0	0.0	0.0	0.0	37	1.0	0.0	20.0	1	1.1	0.9				
	3801	1	191.2229	47.411	0.0	0.0	38	1.0	0.0	500.0	1	1.1	0.9				
	3802	1	0.0	0.0	0.0	0.0	38	1.0	0.0	500.0	1	1.1	0.9				
	3803	1	0.0	0.0	0.0	0.0	38	1.0	0.0	500.0	1	1.1	0.9				
	3804	1	223.6404	55.318	0.0	0.0	38	1.0	0.0	230.0	1	1.1	0.9				
	3805	1	499.3888	163.106	0.0	0.0	38	1.0	0.0	230.0	1	1.1	0.9				
	3806	1	289.5858	41.366	0.0	0.0	38	1.0	0.0	230.0	1	1.1	0.9				
	3831	2	0.0	0.0	0.0	0.0	38	1.0	0.0	20.0	1	1.1	0.9				
	3835	2	0.0	0.0	0.0	0.0	38	1.0	0.0	20.0	1	1.1	0.9				
	3836	2	0.0	0.0	0.0	0.0	38	1.0	0.0	20.0	1	1.1	0.9				
	3891	1	0.0	0.0	0.0	0.0	38	1.0	0.0	500.0	1	1.1	0.9				
	3892	1	0.0	0.0	0.0	0.0	38	1.0	0.0	500.0	1	1.1	0.9				
	3893	1	0.0	0.0	0.0	0.0	38	1.0	0.0	500.0	1	1.1	0.9				
	3894	1	0.0	0.0	0.0	0.0	38	1.0	0.0	500.0	1	1.1	0.9				
	3895	1	0.0	0.0	0.0	0.0	38	1.0	0.0	500.0	1	1.1	0.9				
	3896	1	0.0	0.0	0.0	0.0	38	1.0	0.0	500.0	1	1.1	0.9				
	3897	1	0.0	0.0	0.0	0.0	38	1.0	0.0	500.0	1	1.1	0.9				
	3901	1	0.0	0.0	0.0	0.0	39	1.0	0.0	500.0	1	1.1	0.9				
	3902	1	152.9913	38.248	0.0	0.0	39	1.0	0.0	500.0	1	1.1	0.9				
	3903	1	213.2478	30.269	0.0	0.0	39	1.0	0.0	500.0	1	1.1	0.9				
	3904	1	0.0	0.0	0.0	0.0	39	1.0	0.0	500.0	1	1.1	0.9				
	3905	1	0.0	0.0	0.0	0.0	39	1.0	0.0	500.0	1	1.1	0.9				
	3906	1	0.0	0.0	0.0	0.0	39	1.0	0.0	500.0	1	1.1	0.9				
	3907	1	461.3573	63.071	0.0	0.0	39	1.0	0.0	230.0	1	1.1	0.9				
	3908	1	200.2788	24.716	0.0	0.0	39	1.0	0.0	230.0	1	1.1	0.9				
	3909	1	170.957	39.785	0.0	0.0	39	1.0	0.0	230.0	1	1.1	0.9				
	3910	1	241.8392	34.44	0.0	0.0	39	1.0	0.0	230.0	1	1.1	0.9				
	3911	1	233.1345	47.114	0.0	0.0	39	1.0	0.0	230.0	1	1.1	0.9				
	3912	1	174.5029	-0.634	0.0	0.0	39	1.0	0.0	230.0	1	1.1	0.9				
	3913	1	329.5484	43.435	0.0	0.0	39	1.0	0.0	230.0	1	1.1	0.9				
	3914	1	227.7536	52.549	0.0	0.0	39	1.0	0.0	230.0	1	1.1	0.9				
	3915	1	254.4589	53.402	0.0	0.0	39	1.0	0.0	230.0	1	1.1	0.9				
	3916	1	155.0024	0.0	0.0	0.0	39	1.0	0.0	230.0	1	1.1	0.9				
	3917	1	238.1882	43.995	0.0	0.0	39	1.0	0.0	230.0	1	1.1	0.9				
	3918	1	319.2809	75.464	0.0	0.0	39	1.0	0.0	230.0	1	1.1	0.9				
	3919	1	184.5093	24.094	0.0	0.0	39	1.0	0.0	230.0	1	1.1	0.9				
	3920	1	172.5018	23.677	0.0	0.0	39	1.0	0.0	230.0	1	1.1	0.9				
	3921	1	150.8902	34.821	0.0	0.0	39	1.0	0.0	230.0	1	1.1	0.9				
	3922	1	253.4454	31.919	0.0	0.0	39	1.0	0.0	230.0	1	1.1	0.9				
	3923	1	399.0618	67.021	0.0	0.0	39	1.0	0.0	230.0	1	1.1	0.9				
	3924	1	332.4879	47.165	0.0	0.0	39	1.0	0.0	230.0	1	1.1	0.9				
	3925	1	0.0	0.0	0.0	0.0	39	1.0	0.0	115.0	1	1.1	0.9				
	3926	1	267.3529	16.668	0.0	0.0	39	1.0	0.0	115.0	1	1.1	0.9				
	3931	2	0.0	0.0	0.0	0.0	39	1.0	0.0	20.0	1	1.1	0.9				
	3932	2	0.0	0.0	0.0	0.0	39	1.0	0.0	20.0	1	1.1	0.9				
	3933	3	0.0	0.0	0.0	0.0	39	1.0	0.0	20.0	1	1.1	0.9				
	4001	1	0.0	0.0	0.0	0.0	40	1.0	0.0	500.0	1	1.1	0.9				
	4002	1	168.6841	21.998	0.0	0.0	40	1.0	0.0	500.0	1	1.1	0.9				
	4003	1	0.0	0.0	0.0	0.0	40	1.0	0.0	500.0	1	1.1	0.9				
	4004	1	270.4505	35.297	0.0	0.0	40	1.0	0.0	500.0	1	1.1	0.9				
	4005	1	480.1144	157.418	0.0	0.0	40	1.0	0.0	500.0	1	1.1	0.9				
	4006	1	0.0	0.0	0.0	0.0	40	1.0	0.0	500.0	1	1.1	0.9				
	4007	1	0.0	0.0	0.0	0.0	40	1.0	0.0	500.0	1	1.1	0.9				
	4008	1	285.1446	37.198	0.0	0.0	40	1.0	0.0	345.0	1	1.1	0.9				
	4009	1	2208.7429	431.395	0.0	0.0	40	1.0	0.0	230.0	1	1.1	0.9				
	4010	1	3133.6101	0.0	0.0	0.0	90	1.0	0.0	230.0	1	1.1	0.9				
	4031	2	0.0	0.0	0.0	0.0	40	1.0	0.0	20.0	1	1.1	0.9				
	4035	2	0.0	0.0	0.0	0.0	40	1.0	0.0	20.0	1	1.1	0.9				
	4039	2	0.0	0.0	0.0	0.0	40	1.0	0.0	20.0	1	1.1	0.9				
	4090	1	0.0	0.0	0.0	0.0	40	1.0	0.0	500.0	1	1.1	0.9				
	4091	1	0.0	0.0	0.0	0.0	40	1.0	0.0	500.0	1	1.1	0.9				
	4092	1	0.0	0.0	0.0	0.0	40	1.0	0.0	500.0	1	1.1	0.9				
	4093	1	0.0	0.0	0.0	0.0	40	1.0	0.0	500.0	1	1.1	0.9				
	4094	1	0.0	0.0	0.0	0.0	40	1.0	0.0	500.0	1	1.1	0.9				
	4095	1	0.0	0.0	0.0	0.0	40	1.0	0.0	500.0	1	1.1	0.9				
	4096	1	0.0	0.0	0.0	0.0	40	1.0	0.0	500.0	1	1.1	0.9				
	4097	1	0.0	0.0	0.0	0.0	40	1.0	0.0	500.0	1	1.1	0.9				
	4101	1	995.0275	129.784	0.0	0.0	40	1.0	0.0	500.0	1	1.1	0.9				
	4102	1	480.649	68.664	0.0	0.0	40	1.0	0.0	500.0	1	1.1	0.9				
	4103	1	11.6269	1.509	0.0	0.0	40	1.0	0.0	500.0	1	1.1	0.9				
	4104	1	2527.7724	329.74	0.0	0.0	40	1.0	0.0	230.0	1	1.1	0.9				
	4131	2	0.0	0.0	0.0	0.0	40	1.0	0.0	20.0	1	1.1	0.9				
	4132	2	0.0	0.0	0.0	0.0	40	1.0	0.0	20.0	1	1.1	0.9				
	4201	1	5762.6589	461.013	0.0	0.0	40	1.0	0.0	500.0	1	1.1	0.9				
	4202	1	4558.2389	594.626	0.0	0.0	40	1.0	0.0	500.0	1	1.1	0.9				
	4203	1	4379.6262	571.331	0.0	0.0	40	1.0	0.0	500.0	1	1.1	0.9				
	4204	1	1014.5202	132.34	0.0	0.0	40	1.0	0.0	500.0	1	1.1	0.9				
	4231	2	0.0	0.0	0.0	0.0	40	1.0	0.0	20.0	1	1.1	0.9				
	4232	2	0.0	0.0	0.0	0.0	40	1.0	0.0	20.0	1	1.1	0.9				
	5001	1	7574.0522	1721.375	0.0	0.0	50	1.0	0.0	500.0	1	1.1	0.9				
	5002	1	9003.9839	1174.359	0.0	0.0	50	1.0	0.0	500.0	1	1.1	0.9				
	5003	1	615.2178	80.253	0.0	0.0	50	1.0	0.0	230.0	1	1.1	0.9				
	5004	1	0.0	0.0	0.0	0.0	50	1.0	0.0	230.0	1	1.1	0.9				
	5031	2	0.0	0.0	0.0	0.0	50	1.0	0.0	20.0	1	1.1	0.9				
	5032	2	0.0	0.0	0.0	0.0	50	1.0	0.0	20.0	1	1.1	0.9				
	6101	1	0.0	0.0	0.0	0.0	61	1.0	0.0	500.0	1	1.1	0.9				
	6102	1	1053.1441	-345.277	0.0	0.0	61	1.0	0.0	345.0	1	1.1	0.9				
	6103	1	391.888	51.111	0.0	0.0	61	1.0	0.0	345.0	1	1.1	0.9				
	6104	1	1694.958	221.085	0.0	0.0	61	1.0	0.0	230.0	1	1.1	0.9				
	6132	2	0.0	0.0	0.0	0.0	61	1.0	0.0	20.0	1	1.1	0.9				
	6201	1	205.82	26.857	0.0	0.0	60	1.0	0.0	500.0	1	1.1	0.9				
...
];

%%	 generator data
%    bus    Pg    Qg    Qmax    Qmin    Vg    mBase    status    Pmax    Pmin    Pc1    Pc2    Qc1min    Qc1max    Qc2min    Qc2max    ramp_agc    ramp_10    ramp_30    ramp_q    apf
mpc.gen = [
	1032	1030.0	0.0	1030.0	-1030.0	1.0	100.0	1	2060.436	0.0															
	1032	357.0	0.0	357.0	-357.0	1.0	100.0	1	714.073	0.0															
	1034	2293.5	0.0	2294.0	-2294.0	1.0	100.0	1	4587.271	0.0															
	1034	917.5	0.0	918.0	-918.0	1.0	100.0	1	1835.109	0.0															
	1034	700.0	0.0	700.0	-700.0	1.0	100.0	1	1400.083	0.0															
	1131	307.5	0.0	308.0	-308.0	1.0	100.0	1	615.049	0.0															
	1131	1915.4	0.0	1916.0	-1916.0	1.0	100.0	1	3831.726	0.0															
	1131	120.0	0.0	120.0	-120.0	1.0	100.0	1	240.017	0.0															
	1232	1207.5	0.0	1208.0	-1208.0	1.0	100.0	1	2415.351	0.0															
	1232	628.0	0.0	628.0	-628.0	1.0	100.0	1	1256.124	0.0															
	1331	841.0	0.0	841.0	-841.0	1.0	100.0	1	1691.564	0.0															
	1331	1219.0	0.0	1219.0	-1219.0	1.0	100.0	1	2458.093	0.0															
	1333	302.5	0.0	303.0	-303.0	1.0	100.0	1	1000.276	0.0															
	1333	2745.5	0.0	2746.0	-2746.0	1.0	100.0	1	5543.942	0.0															
	1333	37.5	0.0	38.0	-38.0	1.0	100.0	1	81.076	0.0															
	1431	3559.35	0.0	3559.0	-3559.0	1.0	100.0	1	7120.675	0.0															
	1431	2056.5	0.0	2057.0	-2057.0	1.0	100.0	1	4113.693	0.0															
	1431	15.0	0.0	15.0	-15.0	1.0	100.0	1	30.002	0.0															
	2030	1070.0	0.0	1070.0	-1070.0	1.0	100.0	1	2140.167	0.0															
	2030	349.5	0.0	350.0	-350.0	1.0	100.0	1	841.427	0.0															
	2130	200.0	0.0	200.0	-200.0	1.0	100.0	1	400.028	0.0															
	2130	253.5	0.0	254.0	-254.0	1.0	100.0	1	507.037	0.0															
	2130	250.0	0.0	250.0	-250.0	1.0	100.0	1	500.036	0.0															
	2130	86.0	0.0	86.0	-86.0	1.0	100.0	1	172.011	0.0															
	2233	353.0	93.0	304.0	-118.0	1.0	100.0	1	719.26	0.0															
	2233	626.5	215.0	611.0	-181.0	1.0	100.0	1	1294.765	0.0															
	2233	250.0	25.5	206.0	-155.0	1.0	100.0	1	506.651	0.0															
	2332	559.0	113.0	590.0	-364.0	1.0	100.0	1	1118.085	0.0															
	2438	781.5	137.0	728.0	-454.0	1.0	100.0	1	1563.093	0.0															
	2438	1859.0	367.0	1902.0	-1168.0	1.0	100.0	1	3718.221	0.0															
	2438	1401.5	624.0	2301.0	-1053.0	1.0	100.0	1	2803.167	0.0															
	2438	670.0	68.0	659.0	-523.0	1.0	100.0	1	1340.08	0.0															
	2438	473.0	119.5	436.0	-197.0	1.0	100.0	1	946.057	0.0															
	2438	636.5	4.0	561.0	-553.0	1.0	100.0	1	1273.076	0.0															
	2438	1983.5	380.0	1910.0	-1150.0	1.0	100.0	1	3967.235	0.0															
	2438	-503.0	0.25	0.5	0.0	1.0	100.0	1	0.0	-1006.0															
	2533	1116.0	140.0	1100.0	-820.0	1.0	100.0	1	2334.086	0.0															
	2630	1346.0	0.0	1346.0	-1346.0	1.0	100.0	1	2737.044	0.0															
	2631	159.0	0.0	159.0	-159.0	1.0	100.0	1	318.599	0.0															
	2634	950.0	0.0	950.0	-950.0	1.0	100.0	1	2045.467	0.0															
	2637	55.0	0.0	110.0	-110.0	1.0	100.0	1	110.072	0.0															
	2638	0.0	0.0	100.0	-100.0	1.0	100.0	1	1281.526	-1272.076															
	3133	21.0	6.5	42.0	-29.0	1.0	100.0	1	42.012	0.0															
	3133	0.05	0.0	500.0	-500.0	1.0	100.0	1	0.1	0.0															
	3135	184.5	19.0	239.0	-201.0	1.0	100.0	1	369.796	0.0															
	3135	13.0	7.5	100.0	-85.0	1.0	100.0	1	26.005	0.0															
	3234	60.5	13.0	101.0	-75.0	1.0	100.0	1	121.104	0.0															
	3234	1314.0	5.0	1244.0	-1234.0	1.0	100.0	1	2676.924	0.0															
	3234	353.5	85.0	382.0	-212.0	1.0	100.0	1	710.542	0.0															
	3234	345.0	10.0	75.0	-55.0	1.0	100.0	1	693.373	0.0															
	3333	345.0	86.0	398.0	-226.0	1.0	100.0	1	691.259	0.0															
	3333	106.5	29.5	202.0	-143.0	1.0	100.0	1	213.121	0.0															
	3432	147.0	102.0	510.0	-306.0	1.0	100.0	1	1222.418	-924.072															
	3433	314.0	28.0	231.0	-175.0	1.0	100.0	1	628.081	0.0															
	3433	1008.0	188.5	939.0	-562.0	1.0	100.0	1	2016.691	0.0															
	3531	434.0	202.5	1004.0	-599.0	1.0	100.0	1	873.946	0.0															
	3531	162.5	36.0	253.0	-181.0	1.0	100.0	1	325.834	0.0															
	3531	15.0	1.5	13.0	-10.0	1.0	100.0	1	30.008	0.0															
	3631	26.5	3.0	20.0	-14.0	1.0	100.0	1	53.004	0.0															
	3631	71.5	20.0	74.0	-34.0	1.0	100.0	1	143.012	0.0															
	3731	127.5	39.5	200.0	-121.0	1.0	100.0	1	263.114	0.0															
	3831	1133.5	97.5	1175.0	-980.0	1.0	100.0	1	2267.198	0.0															
	3835	690.5	91.5	662.0	-479.0	1.0	100.0	1	1381.174	0.0															
	3835	-255.0	0.25	0.5	0.0	1.0	100.0	1	0.0	-510.0															
	3836	510.5	62.0	476.0	-352.0	1.0	100.0	1	1021.586	0.0															
	3931	157.0	18.0	151.0	-115.0	1.0	100.0	1	314.019	0.0															
	3931	1848.0	169.0	1284.0	-946.0	1.0	100.0	1	3696.219	0.0															
	3932	739.0	325.0	1150.0	-500.0	1.0	100.0	1	1478.429	0.0															
	3933	295.0	140.5	363.0	-82.0	1.0	100.0	1	592.785	0.0															
	3933	95.5	11.0	77.0	-55.0	1.0	100.0	1	191.292	0.0															
	3933	657.0	96.5	500.0	-307.0	1.0	100.0	1	1327.809	0.0															
	3933	1752.5	107.5	1256.0	-1041.0	1.0	100.0	1	3603.247	0.0															
	3933	146.5	1.0	13.0	-11.0	1.0	100.0	1	293.687	0.0															
	3933	-224.5	0.25	0.5	0.0	1.0	100.0	1	0.0	-449.0															
	4039	102.0	0.0	102.0	-102.0	1.0	100.0	1	204.013	0.0															
	4039	1459.0	0.0	1459.0	-1459.0	1.0	100.0	1	2918.196	0.0															
	4039	187.5	0.0	188.0	-188.0	1.0	100.0	1	375.023	0.0															
	4031	501.5	0.0	502.0	-502.0	1.0	100.0	1	1003.059	0.0															
	4031	489.0	0.0	489.0	-489.0	1.0	100.0	1	978.058	0.0															
	4031	37.5	0.0	38.0	-38.0	1.0	100.0	1	75.005	0.0															
	4031	120.0	0.0	120.0	-120.0	1.0	100.0	1	240.015	0.0															
	4035	255.0	0.0	255.0	-255.0	1.0	100.0	1	510.031	0.0															
	4035	306.5	0.0	307.0	-307.0	1.0	100.0	1	613.037	0.0															
	4035	1835.5	0.0	1836.0	-1836.0	1.0	100.0	1	3671.198	0.0															
	4035	488.0	0.0	488.0	-488.0	1.0	100.0	1	976.058	0.0															
	4131	6481.5	0.0	6482.0	-6482.0	1.0	100.0	1	12963.767	0.0															
	4131	120.0	0.0	120.0	-120.0	1.0	100.0	1	240.015	0.0															
	4132	1472.5	0.0	1473.0	-1473.0	1.0	100.0	1	2945.172	0.0															
	4132	2846.5	0.0	2847.0	-2847.0	1.0	100.0	1	5693.324	0.0															
	4132	580.0	0.0	580.0	-580.0	1.0	100.0	1	1160.069	0.0															
	4132	230.5	0.0	231.0	-231.0	1.0	100.0	1	461.028	0.0															
	4132	87.5	0.0	88.0	-88.0	1.0	100.0	1	175.011	0.0															
	4231	728.0	0.0	728.0	-728.0	1.0	100.0	1	1456.086	0.0															
	4231	658.5	0.0	659.0	-659.0	1.0	100.0	1	1317.078	0.0															
	4231	1807.5	0.0	1808.0	-1808.0	1.0	100.0	1	3615.211	0.0															
	4231	23.5	0.0	24.0	-24.0	1.0	100.0	1	47.003	0.0															
	4232	592.0	0.0	592.0	-592.0	1.0	100.0	1	1184.07	0.0															
	4232	286.5	0.0	287.0	-287.0	1.0	100.0	1	573.034	0.0															
	4232	107.5	0.0	108.0	-108.0	1.0	100.0	1	215.013	0.0															
	5031	605.0	0.0	605.0	-605.0	1.0	100.0	1	4639.769	0.0															
	5031	4399.4	0.0	4399.0	-4399.0	1.0	100.0	1	8799.318	0.0															
	5032	2977.0	0.0	2977.0	-2977.0	1.0	100.0	1	5954.345	0.0															
	5032	2200.0	0.0	2200.0	-2200.0	1.0	100.0	1	4400.257	0.0															
	5032	2205.1	0.0	2205.0	-2205.0	1.0	100.0	1	4410.457	0.0															
	5032	54.0	0.0	54.0	-54.0	1.0	100.0	1	108.007	0.0															
	5032	270.5	0.0	271.0	-271.0	1.0	100.0	1	541.033	0.0															
	6132	7.5	0.0	8.0	-8.0	1.0	100.0	1	15.004	0.0															
	6132	146.5	0.0	147.0	-147.0	1.0	100.0	1	294.441	0.0															
	6132	1072.0	0.0	1072.0	-1072.0	1.0	100.0	1	2221.109	0.0															
	6132	17.5	0.0	18.0	-18.0	1.0	100.0	1	35.021	0.0															
	6132	118.0	0.0	118.0	-118.0	1.0	100.0	1	236.935	0.0															
	6231	1255.5	0.0	1256.0	-1256.0	1.0	100.0	1	2517.926	0.0															
	6231	70.0	0.0	70.0	-70.0	1.0	100.0	1	140.024	0.0															
	6235	63.5	0.0	64.0	-64.0	1.0	100.0	1	127.043	0.0															
	6235	346.5	0.0	347.0	-347.0	1.0	100.0	1	694.255	0.0															
	6235	95.0	0.0	95.0	-95.0	1.0	100.0	1	190.095	0.0															
	6333	1671.0	0.0	1671.0	-1671.0	1.0	100.0	1	3342.196	0.0															
	6333	124.0	0.0	124.0	-124.0	1.0	100.0	1	248.015	0.0															
	6335	967.5	0.0	968.0	-968.0	1.0	100.0	1	1935.115	0.0															
	6335	329.5	0.0	330.0	-330.0	1.0	100.0	1	659.04	0.0															
	6335	406.0	0.0	406.0	-406.0	1.0	100.0	1	812.049	0.0															
	6433	282.5	0.0	283.0	-283.0	1.0	100.0	1	565.034	0.0															
	6433	59.0	0.0	59.0	-59.0	1.0	100.0	1	118.007	0.0															
	6433	536.0	0.0	536.0	-536.0	1.0	100.0	1	1072.063	0.0															
	6433	11.5	0.0	12.0	-12.0	1.0	100.0	1	23.002	0.0															
	6433	25.0	0.0	25.0	-25.0	1.0	100.0	1	50.003	0.0															
	6533	1923.5	0.0	1924.0	-1924.0	1.0	100.0	1	3847.216	0.0															
	6533	18.5	0.0	19.0	-19.0	1.0	100.0	1	37.055	0.0															
	6533	880.0	0.0	880.0	-880.0	1.0	100.0	1	1884.169	0.0															
	6533	19.5	0.0	20.0	-20.0	1.0	100.0	1	39.062	0.0															
	6533	30.5	0.0	31.0	-31.0	1.0	100.0	1	61.15	0.0															
	7031	1418.5	0.0	1419.0	-1419.0	1.0	100.0	1	4140.647	0.0															
	7031	2092.0	0.0	2092.0	-2092.0	1.0	100.0	1	4184.586	0.0															
	7031	0.0	0.0	167.0	-167.0	1.0	100.0	1	350.962	-333.02															
	7031	298.5	0.0	299.0	-299.0	1.0	100.0	1	654.731	0.0															
	7031	0.05	0.0	1000.0	-1000.0	1.0	100.0	1	0.1	0.0															
	7032	826.0	0.0	826.0	-826.0	1.0	100.0	1	2076.356	0.0															
	7032	489.0	0.0	489.0	-489.0	1.0	100.0	1	1126.728	0.0															
	7032	345.5	0.0	346.0	-346.0	1.0	100.0	1	765.247	0.0															
	7032	0.0	0.0	23.0	-23.0	1.0	100.0	1	206.221	-200.012															
	8033	786.0	0.0	786.0	-786.0	1.0	100.0	1	1573.269	0.0															
	8034	1280.0	0.0	1280.0	-1280.0	1.0	100.0	1	2760.903	0.0															
	8034	344.0	0.0	344.0	-344.0	1.0	100.0	1	1949.196	0.0															
];

%%	 branch data
%    f_bus    t_bus    r    x    b    rateA    rateB    rateC    ratio    angle    status    angmin    angmax
mpc.branch = [
	1001	1201	0.00177	0.03169	3.3446	997.469	996.0	996.0	0	0	1	-30.0	30.0								
	1001	1202	0.0108	0.0965	0.3296	326.02	326.0	326.0	0	0	1	-30.0	30.0								
	1002	1004	0.0005	0.0053	0.0882	5934.351	5934.0	5934.0	0	0	1	-30.0	30.0								
	1002	1102	0.00179	0.01988	2.576	1583.094	1583.0	1583.0	0	0	1	-30.0	30.0								
	1002	1102	0.00179	0.01988	2.576	1583.094	1583.0	1583.0	0	0	1	-30.0	30.0								
	1002	6506	0.0048	0.0436	0.7078	721.043	721.0	721.0	0	0	1	-30.0	30.0								
	1004	7001	0.03903	0.27403	2.0	122.329	115.0	115.0	0	0	1	-30.0	30.0								
	1004	7002	0.00977	0.11	2.0	287.17	287.0	287.0	0	0	1	-30.0	30.0								
	1101	1401	0.0028	0.0211	1.0194	1485.089	1485.0	1485.0	0	0	1	-30.0	30.0								
	1101	1401	0.0028	0.0211	1.0194	1485.089	1485.0	1485.0	0	0	1	-30.0	30.0								
	1201	1202	0.00077	0.00536	1.39842	5834.346	5834.0	5834.0	0	0	1	-30.0	30.0								
	1201	1402	0.00179	0.02592	3.3922	1216.07	1216.0	1216.0	0	0	1	-30.0	30.0								
	1201	2901	0.00207	0.01369	3.9516	2282.136	2282.0	2282.0	0	0	1	-30.0	30.0								
	1202	1302	0.0028	0.0211	1.0194	2438.569	1485.0	1485.0	0	0	1	-30.0	30.0								
	1202	1402	0.00241	0.03489	4.8656	915.6	904.0	904.0	0	0	1	-30.0	30.0								
	1301	1302	0.0028	0.0211	1.0194	2438.569	1485.0	1485.0	0	0	1	-30.0	30.0								
	1301	1402	0.0028	0.0211	1.0194	1485.088	1485.0	1485.0	0	0	1	-30.0	30.0								
	1301	1402	0.0062	0.0673	1.1156	468.028	468.0	468.0	0	0	1	-30.0	30.0								
	1301	2603	0.00179	0.02524	0.53546	1249.075	1249.0	1249.0	0	0	1	-30.0	30.0								
	1301	2901	0.0108	0.0965	0.3296	326.02	326.0	326.0	0	0	1	-30.0	30.0								
	1303	6507	0.00811	0.1369	1.1156	294.204	231.0	231.0	0	0	1	-30.0	30.0								
	1401	1402	0.0004	0.0096	0.9038	3288.194	3288.0	3288.0	0	0	1	-30.0	30.0								
	1401	1402	0.0004	0.0096	0.9038	3288.194	3288.0	3288.0	0	0	1	-30.0	30.0								
	1401	2301	0.00259	0.02967	2.153	1061.063	1061.0	1061.0	0	0	1	-30.0	30.0								
	1401	2400	0.00259	0.02967	2.153	1061.134	1061.0	1061.0	0	0	1	-30.0	30.0								
	1403	2100	0.00845	0.07034	0.15954	446.027	446.0	446.0	0	0	1	-30.0	30.0								
	2000	2202	0.00138	0.05399	0.15252	625.785	585.0	585.0	0	0	1	-30.0	30.0								
	2000	2302	0.00138	0.05399	0.15252	739.977	585.0	585.0	0	0	1	-30.0	30.0								
	2100	2302	0.00845	0.07034	0.15954	446.027	446.0	446.0	0	0	1	-30.0	30.0								
	2201	2301	0.00179	0.02524	2.153	1249.072	1249.0	1249.0	0	0	1	-30.0	30.0								
	2202	2203	0.00312	0.02886	0.15252	1089.065	1089.0	1089.0	0	0	1	-30.0	30.0								
	2202	2203	0.00312	0.02886	0.15252	1089.065	1089.0	1089.0	0	0	1	-30.0	30.0								
	2202	2503	0.00312	0.02886	0.15252	1089.065	1089.0	1089.0	0	0	1	-30.0	30.0								
	2203	2503	0.00312	0.02886	0.15252	1089.065	1089.0	1089.0	0	0	1	-30.0	30.0								
	2203	2503	0.00312	0.02886	0.15252	1089.065	1089.0	1089.0	0	0	1	-30.0	30.0								
	2400	2403	0.00042	0.00905	0.66794	3487.207	3487.0	3487.0	0	0	1	-30.0	30.0								
	2401	2402	0.00028	0.00753	0.51736	4192.249	4192.0	4192.0	0	0	1	-30.0	30.0								
	2401	2402	0.00035	0.0075	0.5536	4208.25	4208.0	4208.0	0	0	1	-30.0	30.0								
	2401	2404	0.00044	0.01125	0.8292	2806.167	2806.0	2806.0	0	0	1	-30.0	30.0								
	2401	2404	0.00044	0.01125	0.8292	2806.167	2806.0	2806.0	0	0	1	-30.0	30.0								
	2401	2501	0.0006	0.0128	0.9462	2466.146	2466.0	2466.0	0	0	1	-30.0	30.0								
	2401	2603	0.0002	0.0041	0.2962	7696.456	7696.0	7696.0	0	0	1	-30.0	30.0								
	2401	2901	0.00193	0.02779	4.6712	1134.068	1134.0	1134.0	0	0	1	-30.0	30.0								
	2401	2902	0.0019	0.031	4.1402	1018.061	1018.0	1018.0	0	0	1	-30.0	30.0								
	2402	2501	0.00021	0.00457	0.32336	6905.41	6905.0	6905.0	0	0	1	-30.0	30.0								
	2403	2501	0.0004	0.0093	0.6856	3394.202	3394.0	3394.0	0	0	1	-30.0	30.0								
	2404	3893	0.0	-0.00935	0.0	3379.201	3379.0	3379.0	0	0	1	-30.0	30.0								
	2404	3895	0.0	-0.00935	0.0	3379.201	3379.0	3379.0	0	0	1	-30.0	30.0								
	2404	3897	0.0	-0.0084	0.0	3761.223	3761.0	3761.0	0	0	1	-30.0	30.0								
	2405	2406	0.0014	0.0264	0.102	1195.071	1195.0	1195.0	0	0	1	-30.0	30.0								
	2405	2410	0.00065	0.01187	0.04672	2658.158	2658.0	2658.0	0	0	1	-30.0	30.0								
	2405	2410	0.00065	0.01187	0.04672	2658.158	2658.0	2658.0	0	0	1	-30.0	30.0								
	2406	2408	0.0019	0.0258	0.0984	1281.611	1222.0	1222.0	0	0	1	-30.0	30.0								
	2406	2410	0.00845	0.07034	0.15954	446.027	446.0	446.0	0	0	1	-30.0	30.0								
	2407	2408	0.0011	0.0127	0.048	2478.0	2478.0	2478.0	0	0	1	-30.0	30.0								
	2408	2409	0.00138	0.05399	0.15252	585.032	585.0	585.0	0	0	1	-30.0	30.0								
	2408	2409	0.00138	0.05399	0.15252	585.032	585.0	585.0	0	0	1	-30.0	30.0								
	2408	2411	0.0032	0.0395	0.144	798.048	798.0	798.0	0	0	1	-30.0	30.0								
	2408	2502	0.00312	0.02886	0.15252	1127.968	1089.0	1089.0	0	0	1	-30.0	30.0								
	2409	2502	0.00312	0.02886	0.15252	1089.065	1089.0	1089.0	0	0	1	-30.0	30.0								
	2409	2503	0.00312	0.02886	0.15252	1089.065	1089.0	1089.0	0	0	1	-30.0	30.0								
	2410	2411	0.00285	0.03649	0.12656	893.636	864.0	864.0	0	0	1	-30.0	30.0								
	2410	2411	0.00138	0.03399	0.11252	963.628	929.0	929.0	0	0	1	-30.0	30.0								
	2502	2503	0.00312	0.02886	0.15252	1089.065	1089.0	1089.0	0	0	1	-30.0	30.0								
	2502	2503	0.00312	0.02886	0.15252	1089.065	1089.0	1089.0	0	0	1	-30.0	30.0								
	2901	2902	0.00056	0.01415	1.0429	2231.133	2231.0	2231.0	0	0	1	-30.0	30.0								
	2600	2602	0.00082	0.01668	1.18802	1892.113	1892.0	1892.0	0	0	1	-30.0	30.0								
	2600	2603	0.0	0.00159	0.12002	19867.0	19867.0	19867.0	0	0	1	-30.0	30.0								
	2600	2603	0.0	0.00159	0.12002	19867.0	19867.0	19867.0	0	0	1	-30.0	30.0								
	2600	2601	0.00074	0.01861	1.40264	1696.101	1696.0	1696.0	0	0	1	-30.0	30.0								
	2601	2603	0.00083	0.01884	1.66668	1675.1	1675.0	1675.0	0	0	1	-30.0	30.0								
	2603	2901	0.00179	0.02524	0.53546	1249.075	1249.0	1249.0	0	0	1	-30.0	30.0								
	2604	6404	0.0108	0.0965	0.3296	359.923	326.0	326.0	0	0	1	-30.0	30.0								
	2604	6504	0.0018	0.0245	0.4392	1286.077	1286.0	1286.0	0	0	1	-30.0	30.0								
	2604	6504	0.0018	0.0245	0.4392	1286.077	1286.0	1286.0	0	0	1	-30.0	30.0								
	2605	2607	0.0107	0.07905	0.3667	396.024	396.0	396.0	0	0	1	-30.0	30.0								
	2606	2607	0.0107	0.07905	0.3667	396.024	396.0	396.0	0	0	1	-30.0	30.0								
	2608	2611	0.00221	0.03346	0.07338	942.056	942.0	942.0	0	0	1	-30.0	30.0								
	2608	2612	0.0029	0.038	0.0824	829.05	829.0	829.0	0	0	1	-30.0	30.0								
	2608	2618	0.00309	0.04677	0.1008	674.04	674.0	674.0	0	0	1	-30.0	30.0								
	2608	2619	0.00226	0.03422	0.07506	922.055	922.0	922.0	0	0	1	-30.0	30.0								
	2609	2615	0.00047	0.00723	0.01624	4360.259	4360.0	4360.0	0	0	1	-30.0	30.0								
	2609	2617	0.00035	0.00536	0.01204	5881.349	5881.0	5881.0	0	0	1	-30.0	30.0								
	2610	2613	0.0022	0.03422	0.07716	922.054	922.0	922.0	0	0	1	-30.0	30.0								
	2610	2613	0.00238	0.03669	0.08284	860.051	860.0	860.0	0	0	1	-30.0	30.0								
	2610	2616	0.00201	0.03074	0.06886	1026.06	1026.0	1026.0	0	0	1	-30.0	30.0								
	2610	2617	0.00281	0.04296	0.09648	734.043	734.0	734.0	0	0	1	-30.0	30.0								
	2611	2612	0.00029	0.00434	0.0095	7262.429	7262.0	7262.0	0	0	1	-30.0	30.0								
	2612	2615	0.00229	0.01583	0.0306	1975.118	1975.0	1975.0	0	0	1	-30.0	30.0								
	2612	2615	0.00229	0.01583	0.0306	1975.118	1975.0	1975.0	0	0	1	-30.0	30.0								
	2612	2618	0.00141	0.00967	0.0194	3233.0	3233.0	3233.0	0	0	1	-30.0	30.0								
	2612	2618	0.00141	0.00967	0.0194	3233.0	3233.0	3233.0	0	0	1	-30.0	30.0								
	2612	2618	0.00161	0.00971	0.01928	3210.0	3210.0	3210.0	0	0	1	-30.0	30.0								
	2612	2618	0.00161	0.00971	0.01928	3210.0	3210.0	3210.0	0	0	1	-30.0	30.0								
	2612	2619	0.00027	0.00393	0.00918	8019.462	8019.0	8019.0	0	0	1	-30.0	30.0								
	2612	2619	0.00027	0.00393	0.00918	8019.462	8019.0	8019.0	0	0	1	-30.0	30.0								
	2612	2619	0.00027	0.00393	0.00918	8019.462	8019.0	8019.0	0	0	1	-30.0	30.0								
	2612	2620	0.00138	0.01116	0.0247	2810.167	2810.0	2810.0	0	0	1	-30.0	30.0								
	2612	2620	0.00138	0.01116	0.0247	2810.167	2810.0	2810.0	0	0	1	-30.0	30.0								
	2613	2616	0.00037	0.00366	0.0083	8587.51	8587.0	8587.0	0	0	1	-30.0	30.0								
	2613	2617	0.00055	0.00586	0.01246	5367.319	5367.0	5367.0	0	0	1	-30.0	30.0								
	2614	2616	0.00073	0.01025	0.02558	3074.177	3074.0	3074.0	0	0	1	-30.0	30.0								
	2614	2616	0.00073	0.01025	0.02558	3074.177	3074.0	3074.0	0	0	1	-30.0	30.0								
	2615	2617	0.00119	0.01244	0.02798	2528.15	2528.0	2528.0	0	0	1	-30.0	30.0								
	2615	2617	0.00119	0.01244	0.02798	2528.15	2528.0	2528.0	0	0	1	-30.0	30.0								
	2615	2620	0.00128	0.00979	0.0212	3200.19	3200.0	3200.0	0	0	1	-30.0	30.0								
	2616	2617	0.0011	0.01189	0.02514	2646.157	2646.0	2646.0	0	0	1	-30.0	30.0								
	3101	3102	0.0011	0.0127	0.048	2478.0	2478.0	2478.0	0	0	1	-30.0	30.0								
	3101	3102	0.0011	0.0127	0.048	2478.0	2478.0	2478.0	0	0	1	-30.0	30.0								
	3102	3103	0.0011	0.0127	0.048	2478.147	2478.0	2478.0	0	0	1	-30.0	30.0								
	3102	3103	0.0011	0.0127	0.048	2478.147	2478.0	2478.0	0	0	1	-30.0	30.0								
	3102	3103	0.0011	0.0127	0.048	2478.147	2478.0	2478.0	0	0	1	-30.0	30.0								
	3102	3302	0.0011	0.0127	0.048	2478.147	2478.0	2478.0	0	0	1	-30.0	30.0								
	3103	3204	0.0011	0.0127	0.048	2478.147	2478.0	2478.0	0	0	1	-30.0	30.0								
	3103	3204	0.0011	0.0127	0.048	2478.147	2478.0	2478.0	0	0	1	-30.0	30.0								
	3103	3305	0.0011	0.0127	0.048	2478.147	2478.0	2478.0	0	0	1	-30.0	30.0								
	3103	3305	0.0011	0.0127	0.048	2478.147	2478.0	2478.0	0	0	1	-30.0	30.0								
	3104	3105	0.00312	0.02886	0.15252	1089.065	1089.0	1089.0	0	0	1	-30.0	30.0								
	3201	3202	0.0011	0.0127	0.048	2478.147	2478.0	2478.0	0	0	1	-30.0	30.0								
	3201	3202	0.0011	0.0127	0.048	2478.147	2478.0	2478.0	0	0	1	-30.0	30.0								
	3201	3203	0.0011	0.0127	0.048	2478.147	2478.0	2478.0	0	0	1	-30.0	30.0								
	3201	3203	0.0011	0.0127	0.048	2478.147	2478.0	2478.0	0	0	1	-30.0	30.0								
	3201	3923	0.00312	0.02886	0.15252	1089.065	1089.0	1089.0	0	0	1	-30.0	30.0								
	3201	3923	0.00312	0.02886	0.15252	1089.065	1089.0	1089.0	0	0	1	-30.0	30.0								
	3201	3924	0.0011	0.0127	0.048	2478.147	2478.0	2478.0	0	0	1	-30.0	30.0								
	3201	3924	0.0011	0.0127	0.048	2478.147	2478.0	2478.0	0	0	1	-30.0	30.0								
	3202	3203	0.0011	0.0127	0.048	2478.147	2478.0	2478.0	0	0	1	-30.0	30.0								
	3202	3203	0.00312	0.02886	0.15252	1089.065	1089.0	1089.0	0	0	1	-30.0	30.0								
	3202	3204	0.0011	0.0127	0.048	2478.147	2478.0	2478.0	0	0	1	-30.0	30.0								
	3202	3205	0.0011	0.0127	0.048	2478.147	2478.0	2478.0	0	0	1	-30.0	30.0								
	3202	3924	0.00312	0.02886	0.15252	1089.065	1089.0	1089.0	0	0	1	-30.0	30.0								
	3202	3924	0.00312	0.02886	0.15252	1089.065	1089.0	1089.0	0	0	1	-30.0	30.0								
	3203	3204	0.0011	0.0127	0.048	2478.147	2478.0	2478.0	0	0	1	-30.0	30.0								
	3203	3303	0.0011	0.0127	0.048	2478.147	2478.0	2478.0	0	0	1	-30.0	30.0								
	3203	3303	0.00312	0.02886	0.15252	1089.065	1089.0	1089.0	0	0	1	-30.0	30.0								
	3203	3305	0.0011	0.0127	0.048	2478.147	2478.0	2478.0	0	0	1	-30.0	30.0								
	3203	3923	0.00312	0.02886	0.15252	1089.065	1089.0	1089.0	0	0	1	-30.0	30.0								
	3203	3923	0.00312	0.02886	0.15252	1089.065	1089.0	1089.0	0	0	1	-30.0	30.0								
	3204	3205	0.0011	0.0127	0.048	2478.147	2478.0	2478.0	0	0	1	-30.0	30.0								
	3204	3205	0.0011	0.0127	0.048	2478.147	2478.0	2478.0	0	0	1	-30.0	30.0								
	3204	3923	0.00312	0.02886	0.15252	1089.065	1089.0	1089.0	0	0	1	-30.0	30.0								
	3204	3923	0.00312	0.02886	0.15252	1089.065	1089.0	1089.0	0	0	1	-30.0	30.0								
	3205	3914	0.00312	0.02886	0.15252	1089.065	1089.0	1089.0	0	0	1	-30.0	30.0								
	3205	3915	0.00312	0.02886	0.15252	1089.065	1089.0	1089.0	0	0	1	-30.0	30.0								
	3301	3902	0.00053	0.01297	0.0	2434.145	2434.0	2434.0	0	0	1	-30.0	30.0								
	3301	3903	1.0e-5	-0.00755	0.0	4184.249	4184.0	4184.0	0	0	1	-30.0	30.0								
	3302	3304	0.0011	0.0127	0.048	2478.147	2478.0	2478.0	0	0	1	-30.0	30.0								
	3302	3304	0.0011	0.0127	0.048	2478.147	2478.0	2478.0	0	0	1	-30.0	30.0								
	3303	3304	0.0011	0.0127	0.048	2478.147	2478.0	2478.0	0	0	1	-30.0	30.0								
	3303	3304	0.0011	0.0127	0.048	2478.147	2478.0	2478.0	0	0	1	-30.0	30.0								
	3303	3304	0.0011	0.0127	0.048	2478.147	2478.0	2478.0	0	0	1	-30.0	30.0								
	3303	3918	0.00312	0.02886	0.15252	1089.065	1089.0	1089.0	0	0	1	-30.0	30.0								
	3303	3918	0.00312	0.02886	0.15252	1089.065	1089.0	1089.0	0	0	1	-30.0	30.0								
	3305	3923	0.00312	0.02886	0.15252	1089.065	1089.0	1089.0	0	0	1	-30.0	30.0								
	3401	3402	0.00312	0.02886	0.15252	1089.065	1089.0	1089.0	0	0	1	-30.0	30.0								
	3401	3402	0.00312	0.02886	0.15252	1089.065	1089.0	1089.0	0	0	1	-30.0	30.0								
	3401	3404	0.00312	0.02886	0.15252	1089.065	1089.0	1089.0	0	0	1	-30.0	30.0								
	3401	3405	0.00312	0.02886	0.15252	1089.065	1089.0	1089.0	0	0	1	-30.0	30.0								
	3401	3405	0.00312	0.02886	0.15252	1089.065	1089.0	1089.0	0	0	1	-30.0	30.0								
	3401	3804	0.00312	0.02886	0.15252	1089.065	1089.0	1089.0	0	0	1	-30.0	30.0								
	3403	3404	0.00312	0.02886	0.15252	1091.129	1089.0	1089.0	0	0	1	-30.0	30.0								
	3403	3804	0.00312	0.02886	0.15252	1089.407	1089.0	1089.0	0	0	1	-30.0	30.0								
	3404	3804	0.00312	0.02886	0.15252	1089.065	1089.0	1089.0	0	0	1	-30.0	30.0								
	3404	3804	0.00312	0.02886	0.15252	1089.065	1089.0	1089.0	0	0	1	-30.0	30.0								
	3404	3917	0.00312	0.02886	0.15252	1089.065	1089.0	1089.0	0	0	1	-30.0	30.0								
	3404	3918	0.00312	0.02886	0.15252	1089.065	1089.0	1089.0	0	0	1	-30.0	30.0								
	3405	3907	0.00312	0.02886	0.15252	1089.065	1089.0	1089.0	0	0	1	-30.0	30.0								
	3405	3907	0.00312	0.02886	0.15252	1089.065	1089.0	1089.0	0	0	1	-30.0	30.0								
	3501	3914	0.00312	0.02886	0.15252	1089.065	1089.0	1089.0	0	0	1	-30.0	30.0								
	3501	3915	0.00312	0.02886	0.15252	1089.065	1089.0	1089.0	0	0	1	-30.0	30.0								
	3601	3925	0.00312	0.02886	0.15252	1089.065	1089.0	1089.0	0	0	1	-30.0	30.0								
	3701	3926	0.00312	0.02886	0.15252	1089.065	1089.0	1089.0	0	0	1	-30.0	30.0								
	3701	3926	0.00312	0.02886	0.15252	1089.065	1089.0	1089.0	0	0	1	-30.0	30.0								
	3801	3802	0.00079	0.01937	1.3285	1630.097	1630.0	1630.0	0	0	1	-30.0	30.0								
	3801	3803	0.00087	0.02087	1.4571	1513.09	1513.0	1513.0	0	0	1	-30.0	30.0								
	3801	3803	0.00087	0.02087	1.4571	1513.09	1513.0	1513.0	0	0	1	-30.0	30.0								
	3802	3891	0.00072	0.016	1.0879	1973.117	1973.0	1973.0	0	0	1	-30.0	30.0								
	3802	3901	0.00083	0.01985	0.0	1590.095	1590.0	1590.0	0	0	1	-30.0	30.0								
	3803	3891	2.0e-5	-0.00998	0.0	3166.188	3166.0	3166.0	0	0	1	-30.0	30.0								
	3803	3892	0.0	-0.00935	0.0	3379.201	3379.0	3379.0	0	0	1	-30.0	30.0								
	3803	3894	0.0	-0.00944	0.0	3347.199	3347.0	3347.0	0	0	1	-30.0	30.0								
	3803	3896	0.0	-0.00935	0.0	3379.201	3379.0	3379.0	0	0	1	-30.0	30.0								
	3803	3901	0.00153	0.0147	0.0	2138.127	2138.0	2138.0	0	0	1	-30.0	30.0								
	3804	3806	0.00312	0.02886	0.15252	1089.065	1089.0	1089.0	0	0	1	-30.0	30.0								
	3805	3806	0.00312	0.02886	0.15252	1089.065	1089.0	1089.0	0	0	1	-30.0	30.0								
	3892	3893	0.00123	0.02659	1.98702	1191.106	1187.0	1187.0	0	0	1	-30.0	30.0								
	3894	3895	0.00123	0.02662	1.9888	1200.177	1186.0	1186.0	0	0	1	-30.0	30.0								
	3896	3897	0.00112	0.02517	1.83586	1267.175	1254.0	1254.0	0	0	1	-30.0	30.0								
	3901	3902	0.00053	0.01297	0.0	2434.144	2434.0	2434.0	0	0	1	-30.0	30.0								
	3901	3903	0.00093	0.03644	1.3895	867.052	867.0	867.0	0	0	1	-30.0	30.0								
	3901	8002	2.0e-5	-0.01331	0.0	2376.27	2374.0	2374.0	0	0	1	-30.0	30.0								
	3903	3904	1.0e-5	-0.01098	0.0	2877.532	2877.0	2877.0	0	0	1	-30.0	30.0								
	3903	3905	0.00098	0.01035	0.0	3039.181	3039.0	3039.0	0	0	1	-30.0	30.0								
	3903	8002	0.00165	0.05719	2.4774	553.033	553.0	553.0	0	0	1	-30.0	30.0								
	3904	3905	0.0016	0.01229	0.0	2549.152	2549.0	2549.0	0	0	1	-30.0	30.0								
	3905	3906	0.00072	0.00346	0.0	8938.531	8938.0	8938.0	0	0	1	-30.0	30.0								
	3906	4001	0.00053	0.00456	0.0	6881.409	6881.0	6881.0	0	0	1	-30.0	30.0								
	3906	4001	0.00053	0.00456	0.0	6881.409	6881.0	6881.0	0	0	1	-30.0	30.0								
	3907	3908	0.00312	0.02886	0.15252	1089.065	1089.0	1089.0	0	0	1	-30.0	30.0								
	3907	3923	0.00312	0.02886	0.15252	1127.243	1089.0	1089.0	0	0	1	-30.0	30.0								
...
];

%%-----	  OPF Data  -----%%
%% cost data
%    1    startup    shutdown    n    x1    y1    ...    xn    yn
%    2    startup    shutdown    n    c(n-1)    ...    c0
mpc.gencost = [
	2	0.0	0.0	2	23.55253	0.0
	2	0.0	0.0	2	17.52574	0.0
	2	0.0	0.0	2	50.25355	0.0
	2	0.0	0.0	2	7.78454	0.0
	2	0.0	0.0	2	7.16411	0.0
	2	0.0	0.0	2	32.43696	0.0
	2	0.0	0.0	2	31.15647	0.0
	2	0.0	0.0	2	22.7375	0.0
	2	0.0	0.0	2	19.95218	0.0
	2	0.0	0.0	2	31.24214	0.0
	2	0.0	0.0	2	24.80778	0.0
	2	0.0	0.0	2	28.38397	0.0
	2	0.0	0.0	2	34.75543	0.0
	2	0.0	0.0	2	7.69801	0.0
	2	0.0	0.0	2	105.40495	0.0
	2	0.0	0.0	2	40.08261	0.0
	2	0.0	0.0	2	25.63009	0.0
	2	0.0	0.0	2	103.34877	0.0
	2	0.0	0.0	2	6.76999	0.0
	2	0.0	0.0	2	11.50831	0.0
	2	0.0	0.0	2	37.85683	0.0
	2	0.0	0.0	2	36.10812	0.0
	2	0.0	0.0	2	49.86025	0.0
	2	0.0	0.0	2	19.86328	0.0
	2	0.0	0.0	2	28.21601	0.0
	2	0.0	0.0	2	25.24703	0.0
	2	0.0	0.0	2	39.43572	0.0
	2	0.0	0.0	2	22.41863	0.0
	2	0.0	0.0	2	25.39571	0.0
	2	0.0	0.0	2	112.91998	0.0
	2	0.0	0.0	2	29.4471	0.0
	2	0.0	0.0	2	27.36019	0.0
	2	0.0	0.0	2	43.05455	0.0
	2	0.0	0.0	2	21.95488	0.0
	2	0.0	0.0	2	21.93505	0.0
	2	0.0	0.0	2	0.0	0.0
	2	0.0	0.0	2	32.73864	0.0
	2	0.0	0.0	2	24.64289	0.0
	2	0.0	0.0	2	17.3865	0.0
	2	0.0	0.0	2	25.62398	0.0
	2	0.0	0.0	2	36.00826	0.0
	2	0.0	0.0	2	33.63888	0.0
	2	0.0	0.0	2	60.29519	0.0
	2	0.0	0.0	2	115.78425	0.0
	2	0.0	0.0	2	19.74776	0.0
	2	0.0	0.0	2	139.40667	0.0
	2	0.0	0.0	2	40.62684	0.0
	2	0.0	0.0	2	33.39041	0.0
	2	0.0	0.0	2	9.11681	0.0
	2	0.0	0.0	2	22.59924	0.0
	2	0.0	0.0	2	36.55738	0.0
	2	0.0	0.0	2	29.60055	0.0
	2	0.0	0.0	2	23.12712	0.0
	2	0.0	0.0	2	19.02902	0.0
	2	0.0	0.0	2	26.62866	0.0
	2	0.0	0.0	2	23.06917	0.0
	2	0.0	0.0	2	19.75516	0.0
	2	0.0	0.0	2	111.46878	0.0
	2	0.0	0.0	2	37.36433	0.0
	2	0.0	0.0	2	29.30559	0.0
	2	0.0	0.0	2	43.48795	0.0
	2	0.0	0.0	2	18.00909	0.0
	2	0.0	0.0	2	27.1868	0.0
	2	0.0	0.0	2	0.0	0.0
	2	0.0	0.0	2	39.85561	0.0
	2	0.0	0.0	2	52.29147	0.0
	2	0.0	0.0	2	32.8215	0.0
	2	0.0	0.0	2	22.43414	0.0
	2	0.0	0.0	2	35.06025	0.0
	2	0.0	0.0	2	58.64095	0.0
	2	0.0	0.0	2	40.11158	0.0
	2	0.0	0.0	2	10.72408	0.0
	2	0.0	0.0	2	29.6046	0.0
	2	0.0	0.0	2	7.1481	0.0
	2	0.0	0.0	2	14.12028	0.0
	2	0.0	0.0	2	32.48974	0.0
	2	0.0	0.0	2	32.92052	0.0
	2	0.0	0.0	2	28.87931	0.0
	2	0.0	0.0	2	7.79526	0.0
	2	0.0	0.0	2	14.49579	0.0
	2	0.0	0.0	2	33.52963	0.0
	2	0.0	0.0	2	14.14863	0.0
	2	0.0	0.0	2	22.36009	0.0
	2	0.0	0.0	2	23.15397	0.0
	2	0.0	0.0	2	32.07669	0.0
	2	0.0	0.0	2	31.79967	0.0
	2	0.0	0.0	2	48.37522	0.0
	2	0.0	0.0	2	20.04851	0.0
	2	0.0	0.0	2	13.58156	0.0
	2	0.0	0.0	2	31.58479	0.0
	2	0.0	0.0	2	45.1958	0.0
	2	0.0	0.0	2	39.75913	0.0
	2	0.0	0.0	2	14.53033	0.0
	2	0.0	0.0	2	15.13683	0.0
	2	0.0	0.0	2	42.82832	0.0
	2	0.0	0.0	2	14.38957	0.0
	2	0.0	0.0	2	38.96647	0.0
	2	0.0	0.0	2	15.48658	0.0
	2	0.0	0.0	2	41.49261	0.0
	2	0.0	0.0	2	28.4663	0.0
	2	0.0	0.0	2	27.25565	0.0
	2	0.0	0.0	2	24.83755	0.0
	2	0.0	0.0	2	28.01924	0.0
	2	0.0	0.0	2	11.78694	0.0
	2	0.0	0.0	2	29.98574	0.0
	2	0.0	0.0	2	28.81598	0.0
	2	0.0	0.0	2	37.69843	0.0
	2	0.0	0.0	2	48.83129	0.0
	2	0.0	0.0	2	32.21189	0.0
	2	0.0	0.0	2	105.10466	0.0
	2	0.0	0.0	2	37.87927	0.0
	2	0.0	0.0	2	33.63494	0.0
	2	0.0	0.0	2	30.10783	0.0
	2	0.0	0.0	2	37.79324	0.0
	2	0.0	0.0	2	31.23942	0.0
	2	0.0	0.0	2	28.66327	0.0
	2	0.0	0.0	2	24.40586	0.0
	2	0.0	0.0	2	38.01667	0.0
	2	0.0	0.0	2	32.24785	0.0
	2	0.0	0.0	2	24.38896	0.0
	2	0.0	0.0	2	11.81616	0.0
	2	0.0	0.0	2	29.85287	0.0
	2	0.0	0.0	2	28.25217	0.0
	2	0.0	0.0	2	102.69822	0.0
	2	0.0	0.0	2	23.70753	0.0
	2	0.0	0.0	2	26.93513	0.0
	2	0.0	0.0	2	19.2664	0.0
	2	0.0	0.0	2	27.88954	0.0
	2	0.0	0.0	2	20.45674	0.0
	2	0.0	0.0	2	26.09295	0.0
	2	0.0	0.0	2	37.21031	0.0
	2	0.0	0.0	2	27.33856	0.0
	2	0.0	0.0	2	7.15713	0.0
	2	0.0	0.0	2	38.95611	0.0
	2	0.0	0.0	2	40.64235	0.0
	2	0.0	0.0	2	18.78158	0.0
	2	0.0	0.0	2	43.33086	0.0
	2	0.0	0.0	2	31.90534	0.0
	2	0.0	0.0	2	9.59443	0.0
	2	0.0	0.0	2	25.21516	0.0
	2	0.0	0.0	2	114.36566	0.0
	2	0.0	0.0	2	24.14915	0.0
	2	0.0	0.0	2	24.94878	0.0
];

	 